! Blank file in which we can put "overrides" for parameters
!#override DEBUG = True
!#override VERBOSITY = 9
#override USE_REGRIDDING = True
!#override REMAP_AFTER_INITIALIZATION = False
!#override THICKNESS_CONFIG = "thickness_file"
!THICKNESS_FILE = "thickness_ic.nc"
REGRIDDING_COORDINATE_MODE = "Z*"
#override BULKMIXEDLAYER = False
#override TRIM_IC_FOR_P_SURF = False
#override MINIMUM_DEPTH = 9.9
#override THICKNESS_CONFIG = "uniform"
DEPRESS_INITIAL_SURFACE = True
SURFACE_HEIGHT_IC_FILE = "sfc_ic.nc"
#override TOPO_FILE = "PIG2kmp1_bbar_taub_m1_10nxny_bedelev_outcrp.nc"
#override ICE_THICKNESS_FILE = "PIG2kmp1_bbar_taub_m1_10nxny_bedelev_outcrp.nc"
#override ICE_SHELF_FLUX_FACTOR = 0.0
#override DT = 180.
#override DT_THERM = 180.
#override DYNAMIC_SHELF_MASS = False
#override DAYMAX = 0.125
#override RHO_T0_S0 = 1000.0
!#override DETANGLE_INTERFACES = True
PRESSURE_RECONSTRUCTION_SCHEME = 0
#override KV_BBL_MIN = 1.e-3
#override KV_TBL_MIN = 1.e-3
!#override CHANNEL_DRAG = True
!#override DRAG_BG_VEL = 0.01
!#override ADJUST_BT_CONT = True
!GRADUAL_BT_ICS = True
!BT_USE_VISC_REM_U_UH0 = True
!BT_STRONG_DRAG = True
