!********+*********+*********+*********+*********+*********+*********+*
!*   This file determines the adjustable run-time parameters for the  *
!* Sea Ice Simulator (SIS), versions 2 and later.  Where              *
!* appropriate, MKS units are used.                                   *
!********+*********+*********+*********+*********+*********+*********+*
! >>> Global coupled ice-ocean SIS2 5 layer ice, 63 layer ocean test case.

!  Specify properties of the physical domain.
GRID_CONFIG = "mosaic"          !    Method for defining horizontal grid
                                !  = file|cartesian|spherical|mercator
                                !  file - read grid from file "GRID_FILE"
                                !  cartesian - a Cartesian grid
                                !  spherical - a spherical grid
                                !  mercator  - a Mercator grid
GRID_FILE = "ocean_hgrid.nc"
                                !    Name of file to read horizontal grid data
INPUTDIR = "INPUT"
                                !    INPUTDIR is a directory in which NetCDF
                                !  input files might be found.

!  Specify the numerical domain.
NIGLOBAL = 720                  !    NIGLOBAL and NJGLOBAL are the number of thickness
NJGLOBAL = 120                  !  grid points in the zonal and meridional
                                !  directions of the physical domain.
NCAT_ICE = 5                    !    The number of sea ice thickness categories.
NIHALO = 2                      !    NIHALO and NJHALO are the number of halo
NJHALO = 2                      !  points on each side in the x- and y-directions.
                                !  If static memory allocation is used, these
                                !  must match the values of NIHALO_ and NJHALO_
                                !  in MOM_memory.h.

REENTRANT_X = True              !    If defined, the domain is zonally reentrant.
REENTRANT_Y = False             !    If defined, the domain is meridionally
                                !  reentrant.
TRIPOLAR_N = False               !    Use tripolar connectivity at the northern
                                !  edge of the domain.  With TRIPOLAR_N, NIGLOBAL
                                !  must be even.

DEBUG = False                   !    If true, write out verbose debugging data.
SEND_LOG_TO_STDOUT = False      !    If true write out log information to stdout.
ICE_STATS_INTERVAL = 5.0        !    The interval in units of TIMEUNIT between
                                ! writes of the globally summed ice statistics
                                ! and conservation checks.

!  Specify the time integration scheme for the ice dynamics.
DT_ICE_DYNAMICS = 60.0         ! The time step used for the slow ice dynamics,
                                ! including stepping the continuity equation and
                                ! interactions between the ice mass field and
                                ! velocities, in s.
DT_RHEOLOGY = 60.0             ! The sub-cycling time step, in s, for iterating
                                ! the rheology and ice momentum equations. If
                                ! DT_RHEOLOGY is negative, the time step is set
                                ! via NSTEPS_DYN.
ICE_TDAMP_ELASTIC = 1000.0      !   The damping timescale associated with the
                                ! elastic terms in the sea-ice dynamics.
EULERIAN_TSURF = True           ! If true, use previous calculations of the ice-top surface
                                ! skin temperature for tsurf at the start of atmospheric
                                ! time stepping, including interpolating between tsurf
                                ! values from other categories in the same location.
RECATEGORIZE_ICE = True         ! If true, readjust the distribution into ice thickness
                                ! categories after advection.

!  Specify the ice properties.
ICE_BULK_SALINITY = 0.0         !   [g/kg] default = 4.0
                                ! The fixed bulk salinity of sea ice.
ICE_RELATIVE_SALINITY = 0.1     !   [nondim] default = 0.0
                                ! The initial salinity of sea ice as a fraction of the salinity of the seawater
                                ! from which it formed.
SIS2_FILLING_FRAZIL = True     !   If true, apply frazil to fill as many categories as
                                ! possible to fill in a uniform (minimum) amount of ice
                                ! in all the thinnest categories. Otherwise the frazil is
                                ! always assigned to a single category.

CONSTANT_COSZEN_IC = 0.0        ! A constant value to use to initialize the
                                ! cosine of the solar zenith angle for the first
                                ! radiation step, or a negative number to use
                                ! the current time and astronomy.

!  Specify the properties of the surface forcing.

ICE_OCEAN_STRESS_STAGGER = "C"  ! default = "B"
                                ! A case-insensitive character string to indicate the
                                ! staggering of the stress field on the ocean that is
                                ! returned to the coupler.  Valid values include
                                ! 'A', 'B', or 'C'.

!  These are used for debugging the SIS_input files.
REPORT_UNUSED_PARAMS = True     !   [Boolean] default = False
                                ! If true, report any parameter lines that are not used
                                ! in the run.
FATAL_UNUSED_PARAMS = True      !   [Boolean] default = False
                                ! If true, kill the run if there are any unused
                                ! parameters.

DO_ICEBERGS = False              !   [Boolean] default = False
                                ! If true, call the iceberg module.

SIS_THICKNESS_ADVECTION_SCHEME = "PCM" ! default = "UPWIND_2D"
                                ! The horizontal transport scheme for thickness:
                                !   UPWIND_2D - Non-directionally split upwind
                                !   PCM    - Directionally split peicewise constant
                                !   PLM    - Piecewise Linear Method
                                !   PPM:H3 - Piecewise Parabolic Method (Huyhn 3rd order)
SIS_CONTINUITY_SCHEME = "PCM"   ! default = "UPWIND_2D"
                                ! The horizontal transport scheme used in continuity:
                                !   UPWIND_2D - Non-directionally split upwind
                                !   PCM       - Directionally split peicewise constant
                                !   PPM:C2PD  - Positive definite PPM with 2nd order edge values
                                !   PPM:C2MO  - Monotonic PPM with 2nd order edge values