! This file was written by the model and records all non-layout or debugging parameters used at run-time.


ADIABATIC = True                !   [Boolean] default = False
                                ! There are no diapycnal mass fluxes if ADIABATIC is true. This assumes that KD
                                ! = KDML = 0.0 and that there is no buoyancy forcing, but makes the model faster
                                ! by eliminating subroutine calls.
BULKMIXEDLAYER = False          !   [Boolean] default = True
                                ! If true, use a Kraus-Turner-like bulk mixed layer with transitional buffer
                                ! layers.  Layers 1 through NKML+NKBL have variable densities. There must be at
                                ! least NKML+NKBL+1 layers if BULKMIXEDLAYER is true. BULKMIXEDLAYER can not be
                                ! used with USE_REGRIDDING. The default is influenced by ENABLE_THERMODYNAMICS.
DT = 1200.0                      !   [s]
                                ! The (baroclinic) dynamics time step.  The time-step that is actually used will
                                ! be an integer fraction of the forcing time-step (DT_FORCING in ocean-only mode
                                ! or the coupling timestep in coupled mode.)
DT_FORCING = 1200.0             !   [s] default = 0.0
                                ! The time step for changing forcing, coupling with other components, or
                                ! potentially writing certain diagnostics. The default value is given by DT.
DT_THERM = 1200.0                !   [s] default = 100.0
                                ! The thermodynamic and tracer advection time step. Ideally DT_THERM should be
                                ! an integer multiple of DT and less than the forcing or coupling time-step,
                                ! unless THERMO_SPANS_COUPLING is true, in which case DT_THERM can be an integer
                                ! multiple of the coupling timestep.  By default DT_THERM is set to DT.
FRAZIL = True                  !   [Boolean] default = False
                                ! If true, water freezes if it gets too cold, and the accumulated heat deficit
                                ! is returned in the surface state.  FRAZIL is only used if
                                ! ENABLE_THERMODYNAMICS is true.
C_P = 3925.0                    !   [J kg-1 K-1] default = 3991.86795711963
                                ! The heat capacity of sea water, approximated as a constant. This is only used
                                ! if ENABLE_THERMODYNAMICS is true. The default value is from the TEOS-10
                                ! definition of conservative temperature.
P_REF = 0.0                     !   [Pa] default = 2.0E+07
                                ! The pressure that is used for calculating the coordinate density.  (1 Pa = 1e4
                                ! dbar, so 2e7 is commonly used.) This is only used if USE_EOS and
                                ! ENABLE_THERMODYNAMICS are true.
SAVE_INITIAL_CONDS = True       !   [Boolean] default = False
                                ! If true, write the initial conditions to a file given by IC_OUTPUT_FILE.
IC_OUTPUT_FILE = "IceShelf_IC"  ! default = "MOM_IC"
                                ! The file into which to write the initial conditions.
DTBT_RESET_PERIOD = 1200.0         !   [s] default = 1200.0
                                ! The period between recalculations of DTBT (if DTBT <= 0). If DTBT_RESET_PERIOD                                                                                                                                                                                                                                                                                                            ! is negative, DTBT is set based only on information available at
                                ! initialization.  If 0, DTBT will be set every dynamics time step. The default
                                ! is set by DT_THERM.  This is only used if SPLIT is true.
! === module MOM_domains ===
NIGLOBAL = 720                  !
                                ! The total number of thickness grid points in the x-direction in the physical
                                ! domain. With STATIC_MEMORY_ this is set in MOM_memory.h at compile time.
NJGLOBAL = 120                  !
                                ! The total number of thickness grid points in the y-direction in the physical
                                ! domain. With STATIC_MEMORY_ this is set in MOM_memory.h at compile time.

! === module MOM_fixed_initialization ===
INPUTDIR = "INPUT"              ! default = "."
                                ! The directory in which input files are found.

! === module MOM_grid_init ===
GRID_CONFIG = "mosaic"          !
                                ! A character string that determines the method for defining the horizontal
                                ! grid.  Current options are:
                                !     mosaic - read the grid from a mosaic (supergrid)
                                !              file set by GRID_FILE.
                                !     cartesian - use a (flat) Cartesian grid.
                                !     spherical - use a simple spherical grid.
                                !     mercator - use a Mercator spherical grid.
GRID_FILE = "ocean_hgrid.nc" !
                                ! Name of the file from which to read horizontal grid data.
TOPO_CONFIG = "file"            !
                                ! This specifies how bathymetry is specified:
                                !     file - read bathymetric information from the file
                                !       specified by (TOPO_FILE).
                                !     flat - flat bottom set to MAXIMUM_DEPTH.
                                !     bowl - an analytically specified bowl-shaped basin
                                !       ranging between MAXIMUM_DEPTH and MINIMUM_DEPTH.
                                !     spoon - a similar shape to 'bowl', but with an vertical
                                !       wall at the southern face.
                                !     halfpipe - a zonally uniform channel with a half-sine
                                !       profile in the meridional direction.
                                !     bbuilder - build topography from list of functions.
                                !     benchmark - use the benchmark test case topography.
                                !     Neverworld - use the Neverworld test case topography.
                                !     DOME - use a slope and channel configuration for the
                                !       DOME sill-overflow test case.
                                !     ISOMIP - use a slope and channel configuration for the
                                !       ISOMIP test case.
                                !     DOME2D - use a shelf and slope configuration for the
                                !       DOME2D gravity current/overflow test case.
                                !     Kelvin - flat but with rotated land mask.
                                !     seamount - Gaussian bump for spontaneous motion test case.
                                !     dumbbell - Sloshing channel with reservoirs on both ends.
                                !     shelfwave - exponential slope for shelfwave test case.
                                !     Phillips - ACC-like idealized topography used in the Phillips config.
                                !     dense - Denmark Strait-like dense water formation and overflow.
                                !     USER - call a user modified routine.
TOPO_FILE = "ocean_topog.nc" ! default = "topog.nc"
                                ! The file from which the bathymetry is read.
TOPO_VARNAME = "depth"          ! default = "depth"
                                ! The name of the bathymetry variable in TOPO_FILE.
MAXIMUM_DEPTH = 7500.0          !   [m]
                                ! The maximum depth of the ocean.

ROTATION = "2omegasinlat"               ! default = "2omegasinlat"
                                ! This specifies how the Coriolis parameter is specified:
                                !     2omegasinlat - Use twice the planetary rotation rate
                                !       times the sine of latitude.
                                !     betaplane - Use a beta-plane or f-plane.
                                !     USER - call a user modified routine.
! === module MOM_verticalGrid ===
! Parameters providing information about the vertical grid.
G_EARTH = 9.8                   !   [m s-2] default = 9.8
                                ! The gravitational acceleration of the Earth.
ANGSTROM = 1.0E-15              !   [m] default = 1.0E-10
                                ! The minimum layer thickness, usually one-Angstrom.
H_TO_M = 1.0                    !   [m H-1] default = 1.0
                                ! A constant that translates the model's internal units of thickness into m.
NK = 25                         !   [nondim]
                                ! The number of model layers.

! === module MOM_tracer_registry ===

! === module MOM_EOS ===
EQN_OF_STATE = "LINEAR"         ! default = "WRIGHT"
                                ! EQN_OF_STATE determines which ocean equation of state should be used.
                                ! Currently, the valid choices are "LINEAR", "UNESCO", "WRIGHT", "NEMO" and
                                ! "TEOS10". This is only used if USE_EOS is true.
RHO_T0_S0 = 999.9106806711001   !   [kg m-3] default = 1000.0
                                ! When EQN_OF_STATE=LINEAR, this is the density at T=0, S=0.
DRHO_DT = -0.0383569483         !   [kg m-3 K-1] default = -0.2
                                ! When EQN_OF_STATE=LINEAR, this is the partial derivative of density with
                                ! temperature.
DRHO_DS = 0.805876093           !   [kg m-3 PSU-1] default = 0.8
                                ! When EQN_OF_STATE=LINEAR, this is the partial derivative of density with
                                ! salinity.
EOS_QUADRATURE = True           !   [Boolean] default = False
                                ! If true, always use the generic (quadrature) code code for the integrals of
                                ! density.
TFREEZE_FORM = "LINEAR"     ! default = "LINEAR"
                                ! TFREEZE_FORM determines which expression should be used for the freezing
                                ! point.  Currently, the valid choices are "LINEAR", "MILLERO_78", "TEOS10"

! === module MOM_coord_initialization ===
COORD_CONFIG = "linear"         ! default = "none"
                                ! This specifies how layers are to be defined:
                                !     ALE or none - used to avoid defining layers in ALE mode
                                !     file - read coordinate information from the file
                                !       specified by (COORD_FILE).
                                !     BFB - Custom coords for buoyancy-forced basin case
                                !       based on SST_S, T_BOT and DRHO_DT.
                                !     linear - linear based on interfaces not layers
                                !     layer_ref - linear based on layer densities
                                !     ts_ref - use reference temperature and salinity
                                !     ts_range - use range of temperature and salinity
                                !       (T_REF and S_REF) to determine surface density
                                !       and GINT calculate internal densities.
                                !     gprime - use reference density (RHO_0) for surface
                                !       density and GINT calculate internal densities.
                                !     ts_profile - use temperature and salinity profiles
                                !       (read from COORD_FILE) to set layer densities.
                                !     USER - call a user modified routine.
LIGHTEST_DENSITY = 1027.1524    !   [kg m-3] default = 1027.0
                                ! The reference potential density used for the surface interface.
DENSITY_RANGE = 2.0             !   [kg m-3] default = 2.0
                                ! The range of reference potential densities across all interfaces.

THICKNESS_CONFIG = "ISOMIP"     ! default = "uniform"
                                ! A string that determines how the initial layer thicknesses are specified for a
                                ! new run:
                                !     file - read interface heights from the file specified
                                !     thickness_file - read thicknesses from the file specified
                                !       by (THICKNESS_FILE).
                                !     coord - determined by ALE coordinate.
                                !     uniform - uniform thickness layers evenly distributed
                                !       between the surface and MAXIMUM_DEPTH.
                                !     list - read a list of positive interface depths.
                                !     DOME - use a slope and channel configuration for the
                                !       DOME sill-overflow test case.
                                !     ISOMIP - use a configuration for the
                                !       ISOMIP test case.
                                !     benchmark - use the benchmark test case thicknesses.
                                !     Neverworld - use the Neverworld test case thicknesses.
                                !     search - search a density profile for the interface
                                !       densities. This is not yet implemented.
                                !     circle_obcs - the circle_obcs test case is used.
                                !     DOME2D - 2D version of DOME initialization.
                                !     adjustment2d - 2D lock exchange thickness ICs.
                                !     sloshing - sloshing gravity thickness ICs.
                                !     seamount - no motion test with seamount ICs.
                                !     dumbbell - sloshing channel ICs.
                                !     soliton - Equatorial Rossby soliton.
                                !     rossby_front - a mixed layer front in thermal wind balance.
                                !     USER - call a user modified routine.
MIN_THICKNESS = 1.0E-12         !   [m] default = 0.001
                                ! Minimum layer thickness
ISOMIP_T_SUR = -1.9             !   [degC] default = -1.9
                                ! Temperature at the surface (interface)
ISOMIP_S_SUR = 33.8             !   [ppt] default = 33.8
                                ! Salinity at the surface (interface)
ISOMIP_T_BOT = -1.9             !   [degC] default = -1.9
                                ! Temperature at the bottom (interface)
ISOMIP_S_BOT = 34.55            !   [ppt] default = 34.55
                                ! Salinity at the bottom (interface)
TS_CONFIG = "fit"               !
                                ! A string that determines how the initial tempertures and salinities are
                                ! specified for a new run:
                                !     file - read velocities from the file specified
                                !       by (TS_FILE).
                                !     fit - find the temperatures that are consistent with
                                !       the layer densities and salinity S_REF.
                                !     TS_profile - use temperature and salinity profiles
                                !       (read from TS_FILE) to set layer densities.
                                !     benchmark - use the benchmark test case T & S.
                                !     linear - linear in logical layer space.
                                !     DOME2D - 2D DOME initialization.
                                !     ISOMIP - ISOMIP initialization.
                                !     adjustment2d - 2d lock exchange T/S ICs.
                                !     sloshing - sloshing mode T/S ICs.
                                !     seamount - no motion test with seamount ICs.
                                !     dumbbell - sloshing channel ICs.
                                !     rossby_front - a mixed layer front in thermal wind balance.
                                !     SCM_CVMix_tests - used in the SCM CVMix tests.
                                !     USER - call a user modified routine.
T_REF = -0.5                    !   [degC]
                                ! A reference temperature used in initialization.
S_REF = 35.0                    !   [PSU] default = 35.0
                                ! A reference salinity used in initialization.
FIT_SALINITY = True             !   [Boolean] default = False
                                ! If true, accept the prescribed temperature and fit the salinity; otherwise
                                ! take salinity and fit temperature.
PRANDTL_TURB = 0.0              !   [nondim] default = 1.0
                                ! The turbulent Prandtl number applied to shear instability.
HBBL = 10.0                     !   [m]
                                ! The thickness of a bottom boundary layer with a viscosity of KVBBL if
                                ! BOTTOMDRAGLAW is not defined, or the thickness over which near-bottom
                                ! velocities are averaged for the drag law if BOTTOMDRAGLAW is defined but
                                ! LINEAR_DRAG is not.
BBL_THICK_MIN = 2.0             !   [m] default = 0.0
                                ! The minimum bottom boundary layer thickness that can be used with
                                ! BOTTOMDRAGLAW. This might be Kv/(cdrag*drag_bg_vel) to give Kv as the minimum
                                ! near-bottom viscosity.
HTBL_SHELF_MIN = 2.0            !   [m] default = 2.0
                                ! The minimum top boundary layer thickness that can be used with BOTTOMDRAGLAW.
                                ! This might be Kv/(cdrag*drag_bg_vel) to give Kv as the minimum near-top
                                ! viscosity.
HTBL_SHELF = 10.0               !   [m] default = 10.0
                                ! The thickness over which near-surface velocities are averaged for the drag law
                                ! under an ice shelf.  By default this is the same as HBBL
KV = 1.0E-04                    !   [m2 s-1]
                                ! The background kinematic viscosity in the interior. The molecular value, ~1e-6
                                ! m2 s-1, may be used.
KV_BBL_MIN = 0.01               !   [m2 s-1] default = 1.0E-04
                                ! The minimum viscosities in the bottom boundary layer.
KV_TBL_MIN = 0.01               !   [m2 s-1] default = 1.0E-04
                                ! The minimum viscosities in the top boundary layer.

BOUND_CORIOLIS = True           !   [Boolean] default = False
                                ! If true, the Coriolis terms at u-points are bounded by the four estimates of
                                ! (f+rv)v from the four neighboring v-points, and similarly at v-points.  This
                                ! option is always effectively false with CORIOLIS_EN_DIS defined and
                                ! CORIOLIS_SCHEME set to SADOURNY75_ENERGY.
CORIOLIS_SCHEME = "SADOURNY75_ENERGY" ! default = "SADOURNY75_ENERGY"
                                ! CORIOLIS_SCHEME selects the discretization for the Coriolis terms. Valid
                                ! values are:
                                !    SADOURNY75_ENERGY - Sadourny, 1975; energy cons.
                                !    ARAKAWA_HSU90     - Arakawa & Hsu, 1990
                                !    SADOURNY75_ENSTRO - Sadourny, 1975; enstrophy cons.
                                !    ARAKAWA_LAMB81    - Arakawa & Lamb, 1981; En. + Enst.
                                !    ARAKAWA_LAMB_BLEND - A blend of Arakawa & Lamb with
                                !                         Arakawa & Hsu and Sadourny energy

CORIOLIS_EN_DIS = True          !   [Boolean] default = False
                                ! If true, two estimates of the thickness fluxes are used to estimate the                                                                                                                                                                                                                                                                                                                  ! Coriolis term, and the one that dissipates energy relative to the other one is
                                ! used.
MASS_WEIGHT_IN_PRESSURE_GRADIENT = True !   [Boolean] default = False
                                ! If true, use mass weighting when interpolating T/S for integrals near the
                                ! bathymetry in FV pressure gradient calculations.
PRESSURE_RECONSTRUCTION_SCHEME = 0 ! default = 1
                                ! Order of vertical reconstruction of T/S to use in the integrals within the FV
                                ! pressure gradient calculation.
                                !  0: PCM or no reconstruction.
                                !  1: PLM reconstruction.
                                !  2: PPM reconstruction.
LAPLACIAN = True                !   [Boolean] default = False
                                ! If true, use a Laplacian horizontal viscosity.
KH_VEL_SCALE = 0.02             !   [m s-1] default = 0.0
                                ! The velocity scale which is multiplied by the grid spacing to calculate the
                                ! Laplacian viscosity. The final viscosity is the largest of this scaled
                                ! viscosity, the Smagorinsky and Leith viscosities, and KH.
HARMONIC_VISC = True            !   [Boolean] default = False
                                ! If true, use the harmonic mean thicknesses for calculating the vertical
                                ! viscosity.
HARMONIC_BL_SCALE = 1.0         !   [nondim] default = 0.0
                                ! A scale to determine when water is in the boundary layers based solely on
                                ! harmonic mean thicknesses for the purpose of determining the extent to which
                                ! the thicknesses used in the viscosities are upwinded.
AH_VEL_SCALE = 0.2              !   [m s-1] default = 0.0
                                ! The velocity scale which is multiplied by the cube of the grid spacing to
                                ! calculate the biharmonic viscosity. The final viscosity is the largest of this
                                ! scaled viscosity, the Smagorinsky and Leith viscosities, and AH.
AH_TIME_SCALE = 60.0            !   [s] default = 0.0
                                ! A time scale whose inverse is multiplied by the fourth power of the grid
                                ! spacing to calculate biharmonic viscosity. The final viscosity is the largest
                                ! of all viscosity formulations in use. 0.0 means that it's not used.
SMAGORINSKY_AH = True           !   [Boolean] default = False
                                ! If true, use a biharmonic Smagorinsky nonlinear eddy viscosity.
SMAG_BI_CONST = 0.06            !   [nondim] default = 0.0
                                ! The nondimensional biharmonic Smagorinsky constant, typically 0.015 - 0.06.
HMIX_FIXED = 20.0               !   [m]
                                ! The prescribed depth over which the near-surface viscosity and diffusivity are
                                ! elevated when the bulk mixed layer is not used.
KVML = 1.0E-04                  !   [m2 s-1] default = 1.0E-04
                                ! The kinematic viscosity in the mixed layer.  A typical value is ~1e-2 m2 s-1.
                                ! KVML is not used if BULKMIXEDLAYER is true.  The default is set by KV.
MAXVEL = 10.0                   !   [m s-1] default = 3.0E+08

FIXED_DEPTH_LOTW_ML = True      !   [Boolean] default = False
                                ! If true, use a Law-of-the-wall prescription for the mixed layer viscosity
                                ! within a boundary layer that is the lesser of HMIX_FIXED and the total depth
                                ! of the ocean in a column.
LOTW_VISCOUS_ML_FLOOR = True    !   [Boolean] default = False
                                ! If true, use a Law-of-the-wall prescription to set a lower bound on the
                                ! viscous coupling between layers within the surface boundary layer, based the
                                ! distance of interfaces from the surface.  This only acts when there are large
                                ! changes in the thicknesses of successive layers or when the viscosity is set
                                ! externally and the wind stress has subsequently increased.


                                ! The maximum velocity allowed before the velocity components are truncated.
DYNAMIC_SURFACE_PRESSURE = True !   [Boolean] default = False
                                ! If true, add a dynamic pressure due to a viscous ice shelf, for instance.
ICE_LENGTH_DYN_PSURF = 1.0E+04  !   [m] default = 1.0E+04
                                ! The length scale at which the Rayleigh damping rate due to the ice strength
                                ! should be the same as if a Laplacian were applied, if DYNAMIC_SURFACE_PRESSURE
                                ! is true.
DEPTH_MIN_DYN_PSURF = 1.0E-06   !   [m] default = 1.0E-06
                                ! The minimum depth to use in limiting the size of the dynamic surface pressure
                                ! for stability, if DYNAMIC_SURFACE_PRESSURE is true..
CONST_DYN_PSURF = 0.9           !   [nondim] default = 0.9
                                ! The constant that scales the dynamic surface pressure, if
                                ! DYNAMIC_SURFACE_PRESSURE is true.  Stable values are < ~1.0.
CALCULATE_APE = True            !   [Boolean] default = True
                                ! If true, calculate the available potential energy of the interfaces.  Setting
                                ! this to false reduces the memory footprint of high-PE-count models
                                ! dramatically.
MAXTRUNC = 50                 !   [truncations save_interval-1] default = 0
                                ! The run will be stopped, and the day set to a very large value if the velocity
                                ! is truncated more than MAXTRUNC times between energy saves.  Set MAXTRUNC to 0
                                ! to stop if there is any truncation of velocities.
DATE_STAMPED_STDOUT = False     !   [Boolean] default = True
                                ! If true, use dates (not times) in messages to stdout
ENERGYSAVEDAYS = 0.5            !   [days] default = 1.0
                                ! The interval in units of TIMEUNIT between saves of the energies of the run and
                                ! other globally summed diagnostics.
VARIABLE_WINDS = False          !   [Boolean] default = True
                                ! If true, the winds vary in time after the initialization.
VARIABLE_BUOYFORCE = False      !   [Boolean] default = True
                                ! If true, the buoyancy forcing varies in time after the initialization of the
                                ! model.
DAYMAX = 1.                     !   [days]
                                ! The final time of the whole simulation, in units of TIMEUNIT seconds.  This
                                ! also sets the potential end time of the present run segment if the end time is
                                ! not set via ocean_solo_nml in input.nml.
BE = 0.7                        !   [nondim] default = 0.6
                                ! If SPLIT is true, BE determines the relative weighting of a  2nd-order
                                ! Runga-Kutta baroclinic time stepping scheme (0.5) and a backward Euler scheme                                                                                                                                                                                                                                                                                                            ! (1) that is used for the Coriolis and inertial terms.  BE may be from 0.5 to
                                ! 1, but instability may occur near 0.5. BE is also applicable if SPLIT is false
                                ! and USE_RK2 is true.
CONT_PPM_AGGRESS_ADJUST = True  !   [Boolean] default = False
                                ! If true, allow the adjusted velocities to have a relative CFL change up to
                                ! 0.5
BOUND_BT_CORRECTION = True      !   [Boolean] default = False
                                ! If true, the corrective pseudo mass-fluxes into the barotropic solver are
                                ! limited to values that require less than maxCFL_BT_cont to be accommodated.